*HEADING
cubit(/home/vandriel/local/src/kerner/sphere.inp): 10/04/2013: 18:27:22
version: 13.0
**
********************************** P A R T S **********************************
*PART, NAME=Part-Default
**
********************************** N O D E S **********************************
*NODE, NSET=ALLNODES
       1,    6.731000e+03,    0.000000e+00,    0.000000e+00
       2,    6.648130e+03,    1.052960e+03,    0.000000e+00
       3,    6.401561e+03,    2.079993e+03,    0.000000e+00
       4,    5.997365e+03,    3.055810e+03,    0.000000e+00
       5,    5.445493e+03,    3.956383e+03,    0.000000e+00
       6,    4.759536e+03,    4.759536e+03,    0.000000e+00
       7,    3.956383e+03,    5.445493e+03,    0.000000e+00
       8,    3.055810e+03,    5.997365e+03,    0.000000e+00
       9,    2.079993e+03,    6.401561e+03,    0.000000e+00
      10,    1.052960e+03,    6.648130e+03,    0.000000e+00
      11,    1.321650e-12,    6.731000e+03,    0.000000e+00
      12,   -1.052960e+03,    6.648130e+03,    0.000000e+00
      13,   -2.079993e+03,    6.401561e+03,    0.000000e+00
      14,   -3.055810e+03,    5.997365e+03,    0.000000e+00
      15,   -3.956383e+03,    5.445493e+03,    0.000000e+00
      16,   -4.759536e+03,    4.759536e+03,    0.000000e+00
      17,   -5.445493e+03,    3.956383e+03,    0.000000e+00
      18,   -5.997365e+03,    3.055810e+03,    0.000000e+00
      19,   -6.401561e+03,    2.079993e+03,    0.000000e+00
      20,   -6.648130e+03,    1.052960e+03,    0.000000e+00
** ... 6127 like lines cut
**
********************************** E L E M E N T S ****************************
*ELEMENT, TYPE=C3D8R, ELSET=EB1
       1,     603,     604,     605,     606,      83,      82,     128,     124
       2,     607,     608,     609,     610,     603,     604,     605,     606
       3,     611,     612,     613,     614,     607,     608,     609,     610
       4,     615,     616,     617,     618,     611,     612,     613,     614
       5,     619,     620,     621,     622,     615,     616,     617,     618
       6,     623,     624,     625,     626,     619,     620,     621,     622
       7,     627,     628,     629,     630,     623,     624,     625,     626
       8,     631,     632,     633,     634,     627,     628,     629,     630
       9,     604,     635,     636,     605,      82,      81,     129,     128
      10,     608,     637,     638,     609,     604,     635,     636,     605
      11,     612,     639,     640,     613,     608,     637,     638,     609
      12,     616,     641,     642,     617,     612,     639,     640,     613
      13,     620,     643,     644,     621,     616,     641,     642,     617
      14,     624,     645,     646,     625,     620,     643,     644,     621
      15,     628,     647,     648,     629,     624,     645,     646,     625
      16,     632,     649,     650,     633,     628,     647,     648,     629
      17,     635,     651,     652,     636,      81,      80,     130,     129
      18,     637,     653,     654,     638,     635,     651,     652,     636
      19,     639,     655,     656,     640,     637,     653,     654,     638
      20,     641,     657,     658,     642,     639,     655,     656,     640
** ... 5780 like lines cut
**
********************************** P R O P E R T I E S ************************
*SOLID SECTION, ELSET=EB1, MATERIAL=Default-Steel
**
*END PART
**
**
**
********************************** E N D   P A R T S **********************************
**
**
********************************** A S S E M B L Y ************************************
**
*ASSEMBLY, NAME=ASSEMBLY1
**
*INSTANCE, NAME=Part-Default_1, PART=Part-Default
*END INSTANCE
**
*END ASSEMBLY
**
**
**
*MATERIAL, NAME = Default-Steel
*ELASTIC, TYPE=ISOTROPIC
2.068000e+05, 2.900000e-01
*DENSITY
7.000000e-06
*CONDUCTIVITY,TYPE=ISO
4.500000e-02
*SPECIFIC HEAT
5.000000e+02
**
**
************************************** H I S T O R Y *************************************
**
*PREPRINT
**
**************************************** S T E P 1 ***************************************
*STEP,INC=100,NAME=Default Set
**
*STATIC
1, 1, 1e-05, 1
**
**
**
**
*END STEP
