*HEADING
cubit(/home/vandriel/local/src/kerner/foo/circle_100.inp): 07/16/2014: 19:05:51
version: 13.0
**
********************************** P A R T S **********************************
*PART, NAME=Part-Default
**
********************************** N O D E S **********************************
*NODE, NSET=ALLNODES
       1,   -4.440829e+03,    2.103590e-13,   -3.435423e+03
       2,   -4.340117e+03,    2.092851e-13,   -3.417885e+03
       3,   -4.373812e+03,    2.150649e-13,   -3.512277e+03
       4,    6.367756e+03,    1.225350e-14,   -2.001148e+02
       5,    6.363828e+03,    1.837647e-14,   -3.001105e+02
       6,    6.278755e+03,    1.520867e-14,   -2.483764e+02
       7,    6.342626e+03,    3.671213e-14,   -5.995547e+02
       8,    6.260461e+03,    3.333250e-14,   -5.443610e+02
       9,    6.351261e+03,    3.060729e-14,   -4.998551e+02
      10,    6.358328e+03,    2.449490e-14,   -4.000321e+02
      11,    6.268127e+03,    2.730129e-14,   -4.458639e+02
      12,   -5.636450e+03,   -5.050739e-14,    8.248482e+02
      13,   -5.619567e+03,   -5.635066e-14,    9.202762e+02
      14,   -5.543153e+03,   -5.258493e-14,    8.587770e+02
      15,    6.332426e+03,    4.280792e-14,   -6.991063e+02
      16,    6.251203e+03,    3.935240e-14,   -6.426734e+02
      17,    6.307342e+03,    5.496629e-14,   -8.976677e+02
      18,    6.292464e+03,    6.102588e-14,   -9.966283e+02
      19,    6.214039e+03,    5.734122e-14,   -9.364532e+02
      20,    6.276033e+03,    6.707042e-14,   -1.095343e+03
** ... 13831 like lines cut
**
********************************** E L E M E N T S ****************************
*ELEMENT, TYPE=STRI3, ELSET=EB1
       1,       1,       2,       3
       2,       4,       5,       6
       3,       7,       8,       9
       4,      10,       9,      11
       5,      12,      13,      14
       6,       7,      15,      16
       7,      17,      18,      19
       8,      18,      20,      21
       9,      22,      23,      24
      10,      25,      26,      27
      11,      28,      17,      29
      12,      30,      31,      32
      13,      33,      34,      35
      14,      36,      37,      38
      15,      39,      40,      41
      16,      42,      43,      44
      17,      45,      46,      47
      18,      48,      49,      50
      19,      51,      52,      53
      20,      54,      55,      56
** ... 27280 like lines cut
**
********************************** P R O P E R T I E S ************************
*SHELL SECTION, ELSET=EB1, SECTION INTEGRATION=SIMPSON, MATERIAL=Default-Steel
1.000000e+00
**
*END PART
**
**
**
********************************** E N D   P A R T S **********************************
**
**
********************************** A S S E M B L Y ************************************
**
*ASSEMBLY, NAME=ASSEMBLY1
**
*INSTANCE, NAME=Part-Default_1, PART=Part-Default
*END INSTANCE
**
*END ASSEMBLY
**
**
**
*MATERIAL, NAME = Default-Steel
*ELASTIC, TYPE=ISOTROPIC
2.068000e+05, 2.900000e-01
*DENSITY
7.000000e-06
*CONDUCTIVITY,TYPE=ISO
4.500000e-02
*SPECIFIC HEAT
5.000000e+02
**
**
************************************** H I S T O R Y *************************************
**
*PREPRINT
**
**************************************** S T E P 1 ***************************************
*STEP,INC=100,NAME=Default Set
**
*STATIC
1, 1, 1e-05, 1
**
**
**
**
*END STEP
