*HEADING
cubit(eptun-dunkles/axisem/kerner/unit_tests/flat_triangles.inp): 02/18/2014: 15
version: 13.0
**
********************************** P A R T S **********************************
*PART, NAME=Part-Default
**
********************************** N O D E S **********************************
*NODE, NSET=ALLNODES
       1,   -4.785334e+03,    1.452950e-13,   -2.372847e+03
       2,   -4.990579e+03,    1.450260e-13,   -2.368454e+03
       3,   -4.880880e+03,    1.338703e-13,   -2.186268e+03
       4,    6.367856e+03,    1.225369e-14,   -2.001179e+02
       5,    6.358428e+03,    2.449529e-14,   -4.000384e+02
       6,    6.185356e+03,    1.785708e-14,   -2.916283e+02
       7,    6.342725e+03,    3.671271e-14,   -5.995641e+02
       8,    6.173170e+03,    2.990790e-14,   -4.884331e+02
       9,    6.292562e+03,    6.102684e-14,   -9.966440e+02
      10,    6.132701e+03,    5.388100e-14,   -8.799435e+02
      11,    6.320763e+03,    4.889390e-14,   -7.984980e+02
      12,    6.258152e+03,    7.309956e-14,   -1.193806e+03
      13,    6.102939e+03,    6.572890e-14,   -1.073434e+03
      14,    4.164832e+03,    1.529773e-13,   -2.498308e+03
      15,    4.042522e+03,    1.460280e-13,   -2.384818e+03
      16,    4.224017e+03,    1.435782e-13,   -2.344809e+03
      17,    6.217566e+03,    8.510013e-14,   -1.389791e+03
      18,    6.170843e+03,    9.701672e-14,   -1.584403e+03
      19,    6.024656e+03,    8.909559e-14,   -1.455041e+03
      20,    6.118031e+03,    1.088376e-13,   -1.777452e+03
** ... 3711 like lines cut
**
********************************** E L E M E N T S ****************************
*ELEMENT, TYPE=STRI3, ELSET=EB1
       1,       1,       2,       3
       2,       4,       5,       6
       3,       7,       8,       5
       4,       9,      10,      11
       5,       9,      12,      13
       6,      14,      15,      16
       7,      17,      18,      19
       8,      18,      20,      21
       9,      22,      23,      24
      10,      25,      26,      27
      11,      28,      29,      30
      12,      31,      32,      33
      13,      34,      35,      36
      14,      37,      38,      39
      15,      40,      41,      26
      16,      42,      43,      44
      17,      45,      46,      47
      18,      48,      49,      50
      19,      35,      51,      52
      20,      53,      54,      55
** ... 7240 like lines cut
**
********************************** P R O P E R T I E S ************************
*SHELL SECTION, ELSET=EB1, SECTION INTEGRATION=SIMPSON, MATERIAL=Default-Steel
1.000000e+00
**
*END PART
**
**
**
********************************** E N D   P A R T S **********************************
**
**
********************************** A S S E M B L Y ************************************
**
*ASSEMBLY, NAME=ASSEMBLY1
**
*INSTANCE, NAME=Part-Default_1, PART=Part-Default
*END INSTANCE
**
*END ASSEMBLY
**
**
**
*MATERIAL, NAME = Default-Steel
*ELASTIC, TYPE=ISOTROPIC
2.068000e+05, 2.900000e-01
*DENSITY
7.000000e-06
*CONDUCTIVITY,TYPE=ISO
4.500000e-02
*SPECIFIC HEAT
5.000000e+02
**
**
************************************** H I S T O R Y *************************************
**
*PREPRINT
**
**************************************** S T E P 1 ***************************************
*STEP,INC=100,NAME=Default Set
**
*STATIC
1, 1, 1e-05, 1
**
**
**
**
*END STEP
