*HEADING
cubit(/home/vandriel/local/src/kerner/foo/test_merge.inp): 07/17/2014: 11:15:31
version: 13.0
**
********************************** P A R T S **********************************
*PART, NAME=Part-Default
**
********************************** N O D E S **********************************
*NODE, NSET=ALLNODES
       1,    3.061617e-16,    5.000000e+00,   -5.000000e+00
       2,    2.375758e-16,    4.356845e+00,   -3.879907e+00
       3,    3.061617e-16,    3.750000e+00,   -5.000000e+00
       4,    2.296213e-16,    1.000000e+01,   -3.750000e+00
       5,    2.559591e-16,    9.182008e+00,   -4.180130e+00
       6,    3.061617e-16,    1.000000e+01,   -5.000000e+00
       7,   -3.985738e-17,    1.118145e+00,    6.509205e-01
       8,   -1.183184e-16,    1.122301e+00,    1.932287e+00
       9,   -7.654042e-17,    0.000000e+00,    1.250000e+00
      10,   -2.376847e-16,    5.652808e+00,    3.881685e+00
      11,   -2.374543e-16,    6.934477e+00,    3.877923e+00
      12,   -3.061617e-16,    6.250000e+00,    5.000000e+00
      13,   -1.692882e-16,    5.008832e+00,    2.764686e+00
      14,   -1.720032e-16,    3.730154e+00,    2.809025e+00
      15,   -1.066809e-16,    4.298913e+00,    1.742232e+00
      16,   -3.061617e-16,    5.000000e+00,    5.000000e+00
      17,   -3.061617e-16,    7.500000e+00,    5.000000e+00
      18,   -1.163984e-16,    8.904772e+00,    1.900930e+00
      19,   -1.530808e-16,    1.000000e+01,    2.500000e+00
      20,   -1.931462e-16,    8.997768e+00,    3.154317e+00
** ... 154 like lines cut
**
********************************** E L E M E N T S ****************************
*ELEMENT, TYPE=STRI3, ELSET=EB1
       1,       1,       2,       3
       2,       4,       5,       6
       3,       7,       8,       9
       4,      10,      11,      12
       5,      13,      14,      15
       6,      16,      10,      12
       7,      12,      11,      17
       8,      18,      19,      20
       9,      21,      22,      23
      10,      24,      25,      18
      11,      26,      27,      28
      12,      29,       7,       9
      13,      30,      31,      32
      14,       9,       8,      33
      15,      34,      35,      36
      16,      37,      38,      39
      17,      40,      41,      34
      18,      34,      36,      42
      19,      43,      44,      45
      20,      46,      47,      48
** ... 130 like lines cut
*ELEMENT, TYPE=STRI3, ELSET=EB2
     151,      93,      94,      95
     152,      96,      97,      98
     153,      99,     100,     101
     154,     102,       9,      33
     155,     103,     104,     105
     156,     106,     107,     108
     157,      51,      47,     109
     158,     110,     111,      77
     159,      77,     111,      53
     160,      37,      39,     112
     161,     112,     113,      37
     162,     114,     115,     112
     163,     115,     114,     100
     164,     116,     117,     118
     165,     119,     120,      29
     166,      47,     120,     109
     167,     113,      33,      37
     168,     105,     104,     102
     169,     121,      94,     122
     170,     123,     124,     125
** ... 128 like lines cut
**
********************************** P R O P E R T I E S ************************
*SHELL SECTION, ELSET=EB1, SECTION INTEGRATION=SIMPSON, MATERIAL=Default-Steel
1.000000e+00
*SHELL SECTION, ELSET=EB2, SECTION INTEGRATION=SIMPSON, MATERIAL=Default-Steel
1.000000e+00
**
*END PART
**
**
**
********************************** E N D   P A R T S **********************************
**
**
********************************** A S S E M B L Y ************************************
**
*ASSEMBLY, NAME=ASSEMBLY1
**
*INSTANCE, NAME=Part-Default_1, PART=Part-Default
*END INSTANCE
**
*END ASSEMBLY
**
**
**
*MATERIAL, NAME = Default-Steel
*ELASTIC, TYPE=ISOTROPIC
2.068000e+05, 2.900000e-01
*DENSITY
7.000000e-06
*CONDUCTIVITY,TYPE=ISO
4.500000e-02
*SPECIFIC HEAT
5.000000e+02
**
**
************************************** H I S T O R Y *************************************
**
*PREPRINT
**
**************************************** S T E P 1 ***************************************
*STEP,INC=100,NAME=Default Set
**
*STATIC
1, 1, 1e-05, 1
**
**
**
**
*END STEP
