*HEADING
cubit(t/neptun-dunkles/axisem/kerner/unit_tests/tetrahedron.inp): 02/17/2014: 17
version: 13.0
**
********************************** P A R T S **********************************
*PART, NAME=Part-Default
**
********************************** N O D E S **********************************
*NODE, NSET=ALLNODES
       1,   -7.912214e+02,   -1.188749e+03,    1.129046e+02
       2,   -6.802346e+02,   -6.970477e+02,   -2.056982e+02
       3,   -9.818104e+02,   -7.460383e+02,    3.342379e+02
       4,   -4.520624e+02,   -7.255226e+02,    3.631214e+02
       5,   -1.249720e+03,   -1.255436e+03,    3.936477e+02
       6,   -7.664478e+02,   -1.218932e+03,    7.740360e+02
       7,   -5.617471e+02,   -1.630883e+03,   -9.580624e+01
       8,   -5.842025e+02,   -1.647031e+03,    4.391832e+02
       9,   -1.058355e+03,   -1.698430e+03,    1.185885e+02
      10,   -5.842651e+02,   -1.865845e+02,    6.391494e+01
      11,    2.459221e+01,   -1.582727e+02,    5.902038e+02
      12,    3.168089e+02,   -4.978972e+02,    4.105979e+02
      13,   -2.180524e+01,    1.366337e+02,    2.381740e+02
      14,   -7.098865e+02,    2.392268e+02,    3.766543e+02
      15,   -1.267449e+03,   -2.536285e+02,   -4.670184e+01
      16,   -1.074187e+03,   -2.405959e+02,    6.684220e+02
      17,   -1.337164e+03,    2.186935e+02,    4.368636e+02
      18,   -8.417592e+02,   -1.698331e+00,   -5.334767e+02
      19,   -9.582098e+02,    5.445521e+02,   -1.125261e+02
      20,   -3.016523e+02,    6.493906e+02,   -5.396992e+01
** ... 1625 like lines cut
**
********************************** E L E M E N T S ****************************
*ELEMENT, TYPE=C3D4, ELSET=EB2
       1,       1,       2,       3,       4
       2,       1,       3,       5,       6
       3,       1,       7,       8,       9
       4,      10,      11,      12,      13
       5,      10,      14,      15,      16
       6,      15,      16,      14,      17
       7,       3,      10,      15,      16
       8,      10,      18,      15,      19
       9,      10,      19,      14,      20
      10,       2,      10,       4,      21
      11,      22,      23,      24,      25
      12,       2,       3,       4,      10
      13,      26,      27,      28,      29
      14,      26,      29,      28,      30
      15,      26,      30,      28,      31
      16,      27,      32,      33,      34
      17,      27,      35,      36,      37
      18,      27,      36,      35,      38
      19,      39,      40,      41,      42
      20,      43,      44,      45,      46
** ... 7950 like lines cut
**
********************************** P R O P E R T I E S ************************
*SOLID SECTION, ELSET=EB2, MATERIAL=Default-Steel
**
*END PART
**
**
**
********************************** E N D   P A R T S **********************************
**
**
********************************** A S S E M B L Y ************************************
**
*ASSEMBLY, NAME=ASSEMBLY1
**
*INSTANCE, NAME=Part-Default_1, PART=Part-Default
*END INSTANCE
**
*END ASSEMBLY
**
**
**
*MATERIAL, NAME = Default-Steel
*ELASTIC, TYPE=ISOTROPIC
2.068000e+05, 2.900000e-01
*DENSITY
7.000000e-06
*CONDUCTIVITY,TYPE=ISO
4.500000e-02
*SPECIFIC HEAT
5.000000e+02
**
**
************************************** H I S T O R Y *************************************
**
*PREPRINT
**
**************************************** S T E P 1 ***************************************
*STEP,INC=100,NAME=Default Set
**
*STATIC
1, 1, 1e-05, 1
**
**
**
**
*END STEP
