*HEADING
cubit(/home/vandriel/local/src/kerner/foo/circle_300.inp): 07/16/2014: 19:01:38
version: 13.0
**
********************************** P A R T S **********************************
*PART, NAME=Part-Default
**
********************************** N O D E S **********************************
*NODE, NSET=ALLNODES
       1,   -1.314403e+03,    3.347512e-13,   -5.466901e+03
       2,   -1.048914e+03,    3.239928e-13,   -5.291204e+03
       3,   -1.093570e+03,    3.409133e-13,   -5.567537e+03
       4,    6.362999e+03,    1.828253e-14,   -2.985763e+02
       5,    6.342010e+03,    3.652486e-14,   -5.964963e+02
       6,    6.086715e+03,    2.649234e-14,   -4.326528e+02
       7,    6.307080e+03,    5.468691e-14,   -8.931050e+02
       8,    6.059956e+03,    4.425061e-14,   -7.226673e+02
       9,   -8.417592e+02,    3.070320e-13,   -5.014213e+03
      10,   -7.043152e+02,    3.248729e-13,   -5.305577e+03
      11,    6.195735e+03,    9.061071e-14,   -1.479785e+03
      12,    6.119565e+03,    1.082935e-13,   -1.768567e+03
      13,    5.907208e+03,    9.645774e-14,   -1.575275e+03
      14,    6.029942e+03,    1.257382e-13,   -2.053461e+03
      15,    5.826773e+03,    1.131410e-13,   -1.847732e+03
      16,   -5.226812e+03,    8.163679e-14,   -1.333230e+03
      17,   -4.887594e+03,    8.577578e-14,   -1.400825e+03
      18,   -5.091307e+03,    1.010575e-13,   -1.650395e+03
      19,    2.233930e+03,   -1.043726e-14,    1.704534e+02
      20,    2.317467e+03,   -2.815236e-14,    4.597629e+02
** ... 1722 like lines cut
**
********************************** E L E M E N T S ****************************
*ELEMENT, TYPE=STRI3, ELSET=EB1
       1,       1,       2,       3
       2,       4,       5,       6
       3,       7,       8,       5
       4,       2,       9,      10
       5,      11,      12,      13
       6,      12,      14,      15
       7,      16,      17,      18
       8,      19,      20,      21
       9,      22,      23,      24
      10,      25,      26,      27
      11,      28,      29,      30
      12,      31,      32,      33
      13,      34,      35,      36
      14,      37,      38,      39
      15,      40,      41,      42
      16,      43,      44,      45
      17,      46,      47,      48
      18,      49,      50,      51
      19,      52,      53,      54
      20,      55,      41,      56
** ... 3328 like lines cut
**
********************************** P R O P E R T I E S ************************
*SHELL SECTION, ELSET=EB1, SECTION INTEGRATION=SIMPSON, MATERIAL=Default-Steel
1.000000e+00
**
*END PART
**
**
**
********************************** E N D   P A R T S **********************************
**
**
********************************** A S S E M B L Y ************************************
**
*ASSEMBLY, NAME=ASSEMBLY1
**
*INSTANCE, NAME=Part-Default_1, PART=Part-Default
*END INSTANCE
**
*END ASSEMBLY
**
**
**
*MATERIAL, NAME = Default-Steel
*ELASTIC, TYPE=ISOTROPIC
2.068000e+05, 2.900000e-01
*DENSITY
7.000000e-06
*CONDUCTIVITY,TYPE=ISO
4.500000e-02
*SPECIFIC HEAT
5.000000e+02
**
**
************************************** H I S T O R Y *************************************
**
*PREPRINT
**
**************************************** S T E P 1 ***************************************
*STEP,INC=100,NAME=Default Set
**
*STATIC
1, 1, 1e-05, 1
**
**
**
**
*END STEP
