*HEADING
cubit(/home/vandriel/local/src/kerner/circle.inp): 10/04/2013: 15:46:35
version: 13.0
**
********************************** P A R T S **********************************
*PART, NAME=Part-Default
**
********************************** N O D E S **********************************
*NODE, NSET=ALLNODES
       1,    6.731000e+03,    0.000000e+00,    0.000000e+00
       2,    6.717718e+03,    2.587942e-14,   -4.226430e+02
       3,    6.677924e+03,    5.165670e-14,   -8.436180e+02
       4,    6.611775e+03,    7.723012e-14,   -1.261264e+03
       5,    6.519533e+03,    1.024988e-13,   -1.673932e+03
       6,    6.401561e+03,    1.273629e-13,   -2.079993e+03
       7,    6.258326e+03,    1.517243e-13,   -2.477846e+03
       8,    6.090391e+03,    1.754870e-13,   -2.865920e+03
       9,    5.898420e+03,    1.985571e-13,   -3.242684e+03
      10,    5.683171e+03,    2.208436e-13,   -3.606650e+03
      11,    5.445493e+03,    2.422586e-13,   -3.956383e+03
      12,    5.186325e+03,    2.627174e-13,   -4.290501e+03
      13,    4.906688e+03,    2.821394e-13,   -4.607687e+03
      14,    4.607687e+03,    3.004480e-13,   -4.906688e+03
      15,    4.290501e+03,    3.175708e-13,   -5.186325e+03
      16,    3.956383e+03,    3.334403e-13,   -5.445493e+03
      17,    3.606650e+03,    3.479939e-13,   -5.683171e+03
      18,    3.242684e+03,    3.611741e-13,   -5.898420e+03
      19,    2.865920e+03,    3.729289e-13,   -6.090391e+03
      20,    2.477846e+03,    3.832119e-13,   -6.258326e+03
** ... 953 like lines cut
**
********************************** E L E M E N T S ****************************
*ELEMENT, TYPE=STRI3, ELSET=EB2
       1,     341,     415,     340
       2,       2,       3,     101
       3,       4,       5,     104
       4,       6,       7,     106
       5,       7,       8,     107
       6,     417,     416,     342
       7,     423,     422,     348
       8,       6,     105,       5
       9,     536,     463,     538
      10,     538,     606,     536
      11,     652,     601,     653
      12,     408,     407,     333
      13,     399,     398,     324
      14,     382,     383,     457
      15,     402,     401,     327
      16,     311,     215,     312
      17,     320,     394,     319
      18,     326,     400,     325
      19,     330,     329,     239
      20,     316,     317,     391
** ... 1824 like lines cut
**
********************************** P R O P E R T I E S ************************
*SHELL SECTION, ELSET=EB2, SECTION INTEGRATION=SIMPSON, MATERIAL=Default-Steel
1.000000e+00
**
*END PART
**
**
**
********************************** E N D   P A R T S **********************************
**
**
********************************** A S S E M B L Y ************************************
**
*ASSEMBLY, NAME=ASSEMBLY1
**
*INSTANCE, NAME=Part-Default_1, PART=Part-Default
*END INSTANCE
**
*END ASSEMBLY
**
**
**
*MATERIAL, NAME = Default-Steel
*ELASTIC, TYPE=ISOTROPIC
2.068000e+05, 2.900000e-01
*DENSITY
7.000000e-06
*CONDUCTIVITY,TYPE=ISO
4.500000e-02
*SPECIFIC HEAT
5.000000e+02
**
**
************************************** H I S T O R Y *************************************
**
*PREPRINT
**
**************************************** S T E P 1 ***************************************
*STEP,INC=100,NAME=Default Set
**
*STATIC
1, 1, 1e-05, 1
**
**
**
**
*END STEP
