*HEADING
cubit(/home/vandriel/local/src/kerner/circle_quad2.inp): 10/04/2013: 18:09:32
version: 13.0
**
********************************** P A R T S **********************************
*PART, NAME=Part-Default
**
********************************** N O D E S **********************************
*NODE, NSET=ALLNODES
       1,    6.731000e+03,    0.000000e+00,    0.000000e+00
       2,    6.713044e+03,    3.008538e-14,   -4.913315e+02
       3,    6.659270e+03,    6.001023e-14,   -9.800415e+02
       4,    6.569967e+03,    8.961491e-14,   -1.463523e+03
       5,    6.445610e+03,    1.187414e-13,   -1.939195e+03
       6,    6.286862e+03,    1.472345e-13,   -2.404521e+03
       7,    6.094572e+03,    1.749419e-13,   -2.857018e+03
       8,    5.869765e+03,    2.017160e-13,   -3.294272e+03
       9,    5.613639e+03,    2.274138e-13,   -3.713949e+03
      10,    5.327563e+03,    2.518982e-13,   -4.113810e+03
      11,    5.013062e+03,    2.750387e-13,   -4.491723e+03
      12,    4.671813e+03,    2.967117e-13,   -4.845670e+03
      13,    4.305639e+03,    3.168017e-13,   -5.173764e+03
      14,    3.916492e+03,    3.352013e-13,   -5.474253e+03
      15,    3.506449e+03,    3.518126e-13,   -5.745535e+03
      16,    3.077698e+03,    3.665467e-13,   -5.986162e+03
      17,    2.632526e+03,    3.793252e-13,   -6.194850e+03
      18,    2.173308e+03,    3.900798e-13,   -6.370486e+03
      19,    1.702495e+03,    3.987531e-13,   -6.512133e+03
      20,    1.222598e+03,    4.052990e-13,   -6.619034e+03
** ... 701 like lines cut
**
********************************** E L E M E N T S ****************************
*ELEMENT, TYPE=S4R, ELSET=EB1
       1,       1,       2,      88,      87
       2,       2,       3,      89,      88
       3,       3,       4,      90,      89
       4,       4,       5,      91,      90
       5,       5,       6,      92,      91
       6,       6,       7,      93,      92
       7,       7,       8,      94,      93
       8,       8,       9,      95,      94
       9,       9,      10,      96,      95
      10,      10,      11,      97,      96
      11,      11,      12,      98,      97
      12,      12,      13,      99,      98
      13,      13,      14,     100,      99
      14,      14,      15,     101,     100
      15,      15,      16,     102,     101
      16,      16,      17,     103,     102
      17,      17,      18,     104,     103
      18,      18,      19,     105,     104
      19,      19,      20,     106,     105
      20,      20,      21,     107,     106
** ... 657 like lines cut
**
********************************** P R O P E R T I E S ************************
*SHELL SECTION, ELSET=EB1, SECTION INTEGRATION=SIMPSON, MATERIAL=Default-Steel
1.000000e+00
**
*END PART
**
**
**
********************************** E N D   P A R T S **********************************
**
**
********************************** A S S E M B L Y ************************************
**
*ASSEMBLY, NAME=ASSEMBLY1
**
*INSTANCE, NAME=Part-Default_1, PART=Part-Default
*END INSTANCE
**
*END ASSEMBLY
**
**
**
*MATERIAL, NAME = Default-Steel
*ELASTIC, TYPE=ISOTROPIC
2.068000e+05, 2.900000e-01
*DENSITY
7.000000e-06
*CONDUCTIVITY,TYPE=ISO
4.500000e-02
*SPECIFIC HEAT
5.000000e+02
**
**
************************************** H I S T O R Y *************************************
**
*PREPRINT
**
**************************************** S T E P 1 ***************************************
*STEP,INC=100,NAME=Default Set
**
*STATIC
1, 1, 1e-05, 1
**
**
**
**
*END STEP
