*HEADING
cubit(/home/sstaehler/kerner/Meshes/mantle_only_500km.inp): 03/16/2015: 11:09:16
version: 13.0
**
********************************** P A R T S **********************************
*PART, NAME=Part-Default
**
********************************** N O D E S **********************************
*NODE, NSET=ALLNODES
       1,   -2.868967e+03,    1.844526e+03,    7.441991e+02
       2,   -3.294261e+03,    1.777327e+03,    1.196761e+03
       3,   -2.883100e+03,    1.982307e+03,    1.320838e+03
       4,   -3.112124e+03,    2.112626e+03,    6.724472e+02
       5,   -2.608860e+03,    2.533057e+03,    1.689589e+03
       6,   -3.121339e+03,    2.386577e+03,    1.587565e+03
       7,   -2.851892e+03,    2.159219e+03,    1.802264e+03
       8,   -2.861736e+03,    1.620744e+03,    1.170786e+03
       9,   -2.535661e+03,    1.811504e+03,    1.573517e+03
      10,   -3.171166e+03,    1.853782e+03,    1.654959e+03
      11,    2.998712e+03,    1.035698e+03,    1.456755e+03
      12,    3.300563e+03,    1.555878e+03,    1.290085e+03
      13,    2.978053e+03,    1.415537e+03,    1.146532e+03
      14,    3.034435e+03,    1.641044e+03,    1.504236e+03
      15,   -2.240116e+03,    2.245939e+03,    1.457642e+03
      16,    3.265082e+03,   -2.870188e+03,   -3.271176e+03
      17,    3.167433e+03,   -2.469138e+03,   -2.869464e+03
      18,    2.670692e+03,   -2.736608e+03,   -3.187872e+03
      19,    3.006719e+03,   -2.885625e+03,   -2.652267e+03
      20,    2.785549e+03,   -2.444037e+03,   -2.921698e+03
** ... 10277 like lines cut
**
********************************** E L E M E N T S ****************************
*ELEMENT, TYPE=C3D4, ELSET=EB1
       1,       1,       2,       3,       4
       2,       3,       5,       6,       7
       3,       8,       3,       1,       2
       4,       9,       3,       8,      10
       5,      11,      12,      13,      14
       6,      15,       5,       3,       7
       7,       9,      15,       3,       7
       8,      16,      17,      18,      19
       9,      17,      18,      19,      20
      10,      17,      21,      20,      22
      11,      17,      22,      20,      23
      12,      18,      19,      20,      24
      13,      19,      20,      24,      25
      14,      26,      27,      28,      29
      15,      27,      30,      31,      32
      16,      26,      30,      27,      32
      17,      30,      33,      32,      34
      18,      26,      30,      32,      34
      19,      27,      29,      32,      35
      20,      26,      27,      29,      32
** ... 53201 like lines cut
**
********************************** P R O P E R T I E S ************************
*SOLID SECTION, ELSET=EB1, MATERIAL=Default-Steel
**
*END PART
**
**
**
********************************** E N D   P A R T S **********************************
**
**
********************************** A S S E M B L Y ************************************
**
*ASSEMBLY, NAME=ASSEMBLY1
**
*INSTANCE, NAME=Part-Default_1, PART=Part-Default
*END INSTANCE
**
*END ASSEMBLY
**
**
**
*MATERIAL, NAME = Default-Steel
*ELASTIC, TYPE=ISOTROPIC
2.068000e+05, 2.900000e-01
*DENSITY
7.000000e-06
*CONDUCTIVITY,TYPE=ISO
4.500000e-02
*SPECIFIC HEAT
5.000000e+02
**
**
************************************** H I S T O R Y *************************************
**
*PREPRINT
**
**************************************** S T E P 1 ***************************************
*STEP,INC=100,NAME=Default Set
**
*STATIC
1, 1, 1e-05, 1
**
**
**
**
*END STEP
